examples/feeders/1_MIRA_1/004_chavesMT.dss
New Line.12CF_1061 phases=1 bus1=642771.3 bus2=12CF1061.3 r1=0.001 r0=0.001 x1=0 x0=0 c1=0 c0=0 length=0.001 switch=T
New Line.12CF_1148 phases=1 bus1=368741.1 bus2=12CF1148.1 r1=0.001 r0=0.001 x1=0 x0=0 c1=0 c0=0 length=0.001 switch=T
New Line.12CF_1344 phases=3 bus1=684161.1.2.3 bus2=12CF1344.1.2.3 r1=0.001 r0=0.001 x1=0 x0=0 c1=0 c0=0 length=0.001 switch=T
New Line.12CF_1368 phases=1 bus1=250091.1 bus2=12CF1368.1 r1=0.001 r0=0.001 x1=0 x0=0 c1=0 c0=0 length=0.001 switch=T
New Line.12CF_1523 phases=3 bus1=697651.1.2.3 bus2=12CF1523.1.2.3 r1=0.001 r0=0.001 x1=0 x0=0 c1=0 c0=0 length=0.001 switch=T
New Line.12CF_1644 phases=1 bus1=768791.3 bus2=12CF1644.3 r1=0.001 r0=0.001 x1=0 x0=0 c1=0 c0=0 length=0.001 switch=T
New Line.12CF_1745 phases=1 bus1=788871.3 bus2=12CF1745.3 r1=0.001 r0=0.001 x1=0 x0=0 c1=0 c0=0 length=0.001 switch=T
New Line.12CF_1779 phases=1 bus1=795811.1 bus2=12CF1779.1 r1=0.001 r0=0.001 x1=0 x0=0 c1=0 c0=0 length=0.001 switch=T
New Line.12CF_1853 phases=1 bus1=795821.2 bus2=12CF1853.2 r1=0.001 r0=0.001 x1=0 x0=0 c1=0 c0=0 length=0.001 switch=T
New Line.12CF_1854 phases=1 bus1=795831.3 bus2=12CF1854.3 r1=0.001 r0=0.001 x1=0 x0=0 c1=0 c0=0 length=0.001 switch=T
New Line.12CF_204 phases=1 bus1=788861.3 bus2=12CF204.3 r1=0.001 r0=0.001 x1=0 x0=0 c1=0 c0=0 length=0.001 switch=T
New Line.12CF_206 phases=1 bus1=68961.2 bus2=12CF206.2 r1=0.001 r0=0.001 x1=0 x0=0 c1=0 c0=0 length=0.001 switch=T
New Line.12CF_212 phases=1 bus1=762741.3 bus2=12CF212.3 r1=0.001 r0=0.001 x1=0 x0=0 c1=0 c0=0 length=0.001 switch=T
New Line.12CF_214 phases=1 bus1=69011.1 bus2=12CF214.1 r1=0.001 r0=0.001 x1=0 x0=0 c1=0 c0=0 length=0.001 switch=T
New Line.12CF_219 phases=1 bus1=69001.1 bus2=12CF219.1 r1=0.001 r0=0.001 x1=0 x0=0 c1=0 c0=0 length=0.001 switch=T
New Line.12CF_226 phases=1 bus1=69021.3 bus2=12CF226.3 r1=0.001 r0=0.001 x1=0 x0=0 c1=0 c0=0 length=0.001 switch=T
New Line.12CF_227 phases=1 bus1=69031.3 bus2=12CF227.3 r1=0.001 r0=0.001 x1=0 x0=0 c1=0 c0=0 length=0.001 switch=T
New Line.12CF_230 phases=3 bus1=357011.1.2.3 bus2=12CF230.1.2.3 r1=0.001 r0=0.001 x1=0 x0=0 c1=0 c0=0 length=0.001 switch=T
New Line.12CF_247 phases=1 bus1=442051.1 bus2=12CF247.1 r1=0.001 r0=0.001 x1=0 x0=0 c1=0 c0=0 length=0.001 switch=T
New Line.12CF_695 phases=3 bus1=358901.1.2.3 bus2=12CF695.1.2.3 r1=0.001 r0=0.001 x1=0 x0=0 c1=0 c0=0 length=0.001 switch=T
New Line.12CF_738 phases=1 bus1=629401.1 bus2=12CF738.1 r1=0.001 r0=0.001 x1=0 x0=0 c1=0 c0=0 length=0.001 switch=T
New Line.12CF_837 phases=1 bus1=540371.3 bus2=12CF837.3 r1=0.001 r0=0.001 x1=0 x0=0 c1=0 c0=0 length=0.001 switch=T
New Line.12CF_838 phases=1 bus1=609271.2 bus2=12CF838.2 r1=0.001 r0=0.001 x1=0 x0=0 c1=0 c0=0 length=0.001 switch=T
New Line.12CF_839 phases=1 bus1=610071.2 bus2=12CF839.2 r1=0.001 r0=0.001 x1=0 x0=0 c1=0 c0=0 length=0.001 switch=T
New Line.12CF_965 phases=3 bus1=580591.1.2.3 bus2=12CF965.1.2.3 r1=0.001 r0=0.001 x1=0 x0=0 c1=0 c0=0 length=0.001 switch=T
New Line.12CF_968 phases=3 bus1=451161.1.2.3 bus2=12CF968.1.2.3 r1=0.001 r0=0.001 x1=0 x0=0 c1=0 c0=0 length=0.001 switch=T
New Line.12CF_994 phases=1 bus1=64051.2 bus2=12CF994.2 r1=0.001 r0=0.001 x1=0 x0=0 c1=0 c0=0 length=0.001 switch=T
New Line.12CS_1833 phases=3 bus1=774731.1.2.3 bus2=12CS1833.1.2.3 r1=0.001 r0=0.001 x1=0 x0=0 c1=0 c0=0 length=0.001 switch=T
New Line.12CS_242 phases=3 bus1=764121.1.2.3 bus2=12CS242.1.2.3 r1=0.001 r0=0.001 x1=0 x0=0 c1=0 c0=0 length=0.001 switch=T
New Line.12CS_246 phases=3 bus1=307491.1.2.3 bus2=12CS246.1.2.3 r1=0.001 r0=0.001 x1=0 x0=0 c1=0 c0=0 length=0.001 switch=T
New Line.12DJ_90100 phases=3 bus1=1_MIRA_1.1.2.3 bus2=12DJ90100.1.2.3 r1=0.001 r0=0.001 x1=0 x0=0 c1=0 c0=0 length=0.001 switch=T
New Line.12FR_203 phases=3 bus1=54451.1.2.3 bus2=12FR203.1.2.3 r1=0.001 r0=0.001 x1=0 x0=0 c1=0 c0=0 length=0.001 switch=T
New Line.12FR_205 phases=1 bus1=49331.2 bus2=12FR205.2 r1=0.001 r0=0.001 x1=0 x0=0 c1=0 c0=0 length=0.001 switch=T
New Line.12FR_207 phases=1 bus1=49341.1 bus2=12FR207.1 r1=0.001 r0=0.001 x1=0 x0=0 c1=0 c0=0 length=0.001 switch=T
New Line.12FR_210 phases=3 bus1=24581.1.2.3 bus2=12FR210.1.2.3 r1=0.001 r0=0.001 x1=0 x0=0 c1=0 c0=0 length=0.001 switch=T
New Line.12FR_211 phases=1 bus1=68971.2 bus2=12FR211.2 r1=0.001 r0=0.001 x1=0 x0=0 c1=0 c0=0 length=0.001 switch=T
New Line.12FR_213 phases=3 bus1=762751.1.2.3 bus2=12FR213.1.2.3 r1=0.001 r0=0.001 x1=0 x0=0 c1=0 c0=0 length=0.001 switch=T
New Line.12FR_725 phases=3 bus1=327141.1.2.3 bus2=12FR725.1.2.3 r1=0.001 r0=0.001 x1=0 x0=0 c1=0 c0=0 length=0.001 switch=T
New Line.12FR_840 phases=3 bus1=609251.1.2.3 bus2=12FR840.1.2.3 r1=0.001 r0=0.001 x1=0 x0=0 c1=0 c0=0 length=0.001 switch=T
New Line.12FS_202 phases=1 bus1=1381.3 bus2=12FS202.3 r1=0.001 r0=0.001 x1=0 x0=0 c1=0 c0=0 length=0.001 switch=T
New Line.12FS_228 phases=1 bus1=761781.1 bus2=12FS228.1 r1=0.001 r0=0.001 x1=0 x0=0 c1=0 c0=0 length=0.001 switch=T
New Line.12FS_229 phases=1 bus1=756011.2 bus2=12FS229.2 r1=0.001 r0=0.001 x1=0 x0=0 c1=0 c0=0 length=0.001 switch=T
New Line.12RL_718 phases=3 bus1=732671.1.2.3 bus2=12RL718.1.2.3 r1=0.001 r0=0.001 x1=0 x0=0 c1=0 c0=0 length=0.001 switch=T
